#======================================================================

# CRYSTAL DATA

#----------------------------------------------------------------------

data_VESTA_phase_1


_pd_phase_name                         'Ba5SmSn3Nb7O30'
_cell_length_a                         12.58761
_cell_length_b                         12.58761
_cell_length_c                         3.96220
_cell_angle_alpha                      90
_cell_angle_beta                       90
_cell_angle_gamma                      90
_symmetry_space_group_name_H-M         'P 4/m b m'
_symmetry_Int_Tables_number            127

loop_
_symmetry_equiv_pos_as_xyz
   'x, y, z'
   '-x, -y, -z'
   '-x, -y, z'
   'x, y, -z'
   '-y, x, z'
   'y, -x, -z'
   'y, -x, z'
   '-y, x, -z'
   '-x+1/2, y+1/2, -z'
   'x+1/2, -y+1/2, z'
   'x+1/2, -y+1/2, -z'
   '-x+1/2, y+1/2, z'
   'y+1/2, x+1/2, -z'
   '-y+1/2, -x+1/2, z'
   '-y+1/2, -x+1/2, -z'
   'y+1/2, x+1/2, z'

loop_
   _atom_site_label
   _atom_site_occupancy
   _atom_site_fract_x
   _atom_site_fract_y
   _atom_site_fract_z
   _atom_site_adp_type
   _atom_site_B_iso_or_equiv
   _atom_site_type_symbol
   Sm3+         0.5000  0.000000      0.000000      0.000000     Biso  1.091280 Sm
   Ba2+         0.5000  0.000000      0.000000      0.000000     Biso  1.091280 Ba
   Ba2+         1.0     0.171010      0.671010      0.000000     Biso  1.687900 Ba
   Sn4+         0.3000  0.000000      0.500000      0.500000     Biso  1.242080 Sn
   Nb5+         0.7000  0.000000      0.500000      0.500000     Biso  1.242080 Nb
   Sn4+         0.3000  0.074970      0.214210      0.500000     Biso  0.534880 Sn
   Nb5+         0.7000  0.074970      0.214210      0.500000     Biso  0.534880 Nb
   O2-         1.0     0.000000      0.500000      0.000000     Biso  1.850030 O
   O2-         1.0     0.281010      0.781010      0.500000     Biso  1.850030 O
   O2-         1.0     0.075050      0.203440      0.000000     Biso  1.850030 O
   O2-         1.0     0.343650      0.007660      0.500000     Biso  1.850030 O
   O2-         1.0     0.136870      0.066740      0.500000     Biso  1.850030 O
